Circuit: * C:\Users\Cal\OneDrive\Current_Files\Other\Gopher Motorsports\Electric Shifter\Single Leg Clutch.asc

Limiting rise time of source v1 to 5e-007
Limiting fall time of source v1 to 5e-007
Direct Newton iteration for .op point succeeded.

Date: Tue Oct 12 16:02:22 2021
Total elapsed time: 1.191 seconds.

tnom = 27
temp = 27
method = modified trap
totiter = 144175
traniter = 144170
tranpoints = 69843
accept = 56692
rejected = 13151
matrix size = 8
fillins = 0
solver = Normal
Matrix Compiler1: 228 bytes object code size  0.3/0.2/[0.2]
Matrix Compiler2: 472 bytes object code size  0.2/0.3/[0.2]

